data_Ti3AlC2\(0\0\1)\(2)\(0\0\1)\(0\0\-1)\(0\0\1)
_audit_creation_date              2023-09-08
_audit_creation_method            'Materials Studio'
_symmetry_space_group_name_H-M    'P1'
_symmetry_Int_Tables_number       1
_symmetry_cell_setting            triclinic
loop_
_symmetry_equiv_pos_as_xyz
  x,y,z
_cell_length_a                    15.9604
_cell_length_b                    9.2148
_cell_length_c                    60.9892
_cell_angle_alpha                 90.0000
_cell_angle_beta                  90.0000
_cell_angle_gamma                 90.0000
loop_
_atom_site_label
_atom_site_type_symbol
_atom_site_fract_x
_atom_site_fract_y
_atom_site_fract_z
_atom_site_U_iso_or_equiv
_atom_site_adp_type
_atom_site_occupancy
C1     C     0.11732   0.04192   0.70192   0.00000  Uiso   1.00
C2     C     0.61732   0.54192   0.70192   0.00000  Uiso   1.00
Ti3    Ti    0.06177   0.20859   0.71961   0.00000  Uiso   1.00
Ti4    Ti    0.56177   0.70859   0.71961   0.00000  Uiso   1.00
C5     C     0.06177   0.20859   0.65949   0.00000  Uiso   1.00
C6     C     0.56177   0.70859   0.65949   0.00000  Uiso   1.00
Ti7    Ti    0.11732   0.04192   0.64180   0.00000  Uiso   1.00
Ti8    Ti    0.61732   0.54192   0.64180   0.00000  Uiso   1.00
Ti9    Ti    0.00621   0.04192   0.68071   0.00000  Uiso   1.00
Ti10   Ti    0.50621   0.54192   0.68071   0.00000  Uiso   1.00
C11    C     0.11732   0.37526   0.70192   0.00000  Uiso   1.00
C12    C     0.61732   0.87526   0.70192   0.00000  Uiso   1.00
Ti13   Ti    0.06177   0.54192   0.71961   0.00000  Uiso   1.00
Ti14   Ti    0.56177   0.04192   0.71961   0.00000  Uiso   1.00
C15    C     0.06177   0.54192   0.65949   0.00000  Uiso   1.00
C16    C     0.56177   0.04192   0.65949   0.00000  Uiso   1.00
Ti17   Ti    0.11732   0.37526   0.64180   0.00000  Uiso   1.00
Ti18   Ti    0.61732   0.87526   0.64180   0.00000  Uiso   1.00
Ti19   Ti    0.00621   0.37526   0.68071   0.00000  Uiso   1.00
Ti20   Ti    0.50621   0.87526   0.68071   0.00000  Uiso   1.00
C21    C     0.11732   0.70859   0.70192   0.00000  Uiso   1.00
C22    C     0.61732   0.20859   0.70192   0.00000  Uiso   1.00
Ti23   Ti    0.06177   0.87526   0.71961   0.00000  Uiso   1.00
Ti24   Ti    0.56177   0.37526   0.71961   0.00000  Uiso   1.00
C25    C     0.06177   0.87526   0.65949   0.00000  Uiso   1.00
C26    C     0.56177   0.37526   0.65949   0.00000  Uiso   1.00
Ti27   Ti    0.11732   0.70859   0.64180   0.00000  Uiso   1.00
Ti28   Ti    0.61732   0.20859   0.64180   0.00000  Uiso   1.00
Ti29   Ti    0.00621   0.70859   0.68071   0.00000  Uiso   1.00
Ti30   Ti    0.50621   0.20859   0.68071   0.00000  Uiso   1.00
C31    C     0.28399   0.87526   0.70192   0.00000  Uiso   1.00
C32    C     0.78399   0.37526   0.70192   0.00000  Uiso   1.00
Ti33   Ti    0.22843   0.04192   0.71961   0.00000  Uiso   1.00
Ti34   Ti    0.72843   0.54192   0.71961   0.00000  Uiso   1.00
C35    C     0.22843   0.04192   0.65949   0.00000  Uiso   1.00
C36    C     0.72843   0.54192   0.65949   0.00000  Uiso   1.00
Ti37   Ti    0.28399   0.87526   0.64180   0.00000  Uiso   1.00
Ti38   Ti    0.78399   0.37526   0.64180   0.00000  Uiso   1.00
Ti39   Ti    0.17288   0.87526   0.68071   0.00000  Uiso   1.00
Ti40   Ti    0.67288   0.37526   0.68071   0.00000  Uiso   1.00
C41    C     0.28399   0.20859   0.70192   0.00000  Uiso   1.00
C42    C     0.78399   0.70859   0.70192   0.00000  Uiso   1.00
Ti43   Ti    0.22843   0.37526   0.71961   0.00000  Uiso   1.00
Ti44   Ti    0.72843   0.87526   0.71961   0.00000  Uiso   1.00
C45    C     0.22843   0.37526   0.65949   0.00000  Uiso   1.00
C46    C     0.72843   0.87526   0.65949   0.00000  Uiso   1.00
Ti47   Ti    0.28399   0.20859   0.64180   0.00000  Uiso   1.00
Ti48   Ti    0.78399   0.70859   0.64180   0.00000  Uiso   1.00
Ti49   Ti    0.17288   0.20859   0.68071   0.00000  Uiso   1.00
Ti50   Ti    0.67288   0.70859   0.68071   0.00000  Uiso   1.00
C51    C     0.28399   0.54192   0.70192   0.00000  Uiso   1.00
C52    C     0.78399   0.04192   0.70192   0.00000  Uiso   1.00
Ti53   Ti    0.22843   0.70859   0.71961   0.00000  Uiso   1.00
Ti54   Ti    0.72843   0.20859   0.71961   0.00000  Uiso   1.00
C55    C     0.22843   0.70859   0.65949   0.00000  Uiso   1.00
C56    C     0.72843   0.20859   0.65949   0.00000  Uiso   1.00
Ti57   Ti    0.28399   0.54192   0.64180   0.00000  Uiso   1.00
Ti58   Ti    0.78399   0.04192   0.64180   0.00000  Uiso   1.00
Ti59   Ti    0.17288   0.54192   0.68071   0.00000  Uiso   1.00
Ti60   Ti    0.67288   0.04192   0.68071   0.00000  Uiso   1.00
C61    C     0.45066   0.70859   0.70192   0.00000  Uiso   1.00
C62    C     0.95066   0.20859   0.70192   0.00000  Uiso   1.00
Ti63   Ti    0.39510   0.87526   0.71961   0.00000  Uiso   1.00
Ti64   Ti    0.89510   0.37526   0.71961   0.00000  Uiso   1.00
C65    C     0.39510   0.87526   0.65949   0.00000  Uiso   1.00
C66    C     0.89510   0.37526   0.65949   0.00000  Uiso   1.00
Ti67   Ti    0.45066   0.70859   0.64180   0.00000  Uiso   1.00
Ti68   Ti    0.95066   0.20859   0.64180   0.00000  Uiso   1.00
Ti69   Ti    0.33955   0.70859   0.68071   0.00000  Uiso   1.00
Ti70   Ti    0.83955   0.20859   0.68071   0.00000  Uiso   1.00
C71    C     0.45066   0.04192   0.70192   0.00000  Uiso   1.00
C72    C     0.95066   0.54192   0.70192   0.00000  Uiso   1.00
Ti73   Ti    0.39510   0.20859   0.71961   0.00000  Uiso   1.00
Ti74   Ti    0.89510   0.70859   0.71961   0.00000  Uiso   1.00
C75    C     0.39510   0.20859   0.65949   0.00000  Uiso   1.00
C76    C     0.89510   0.70859   0.65949   0.00000  Uiso   1.00
Ti77   Ti    0.45066   0.04192   0.64180   0.00000  Uiso   1.00
Ti78   Ti    0.95066   0.54192   0.64180   0.00000  Uiso   1.00
Ti79   Ti    0.33955   0.04192   0.68071   0.00000  Uiso   1.00
Ti80   Ti    0.83955   0.54192   0.68071   0.00000  Uiso   1.00
C81    C     0.45066   0.37526   0.70192   0.00000  Uiso   1.00
C82    C     0.95066   0.87526   0.70192   0.00000  Uiso   1.00
Ti83   Ti    0.39510   0.54192   0.71961   0.00000  Uiso   1.00
Ti84   Ti    0.89510   0.04192   0.71961   0.00000  Uiso   1.00
C85    C     0.39510   0.54192   0.65949   0.00000  Uiso   1.00
C86    C     0.89510   0.04192   0.65949   0.00000  Uiso   1.00
Ti87   Ti    0.45066   0.37526   0.64180   0.00000  Uiso   1.00
Ti88   Ti    0.95066   0.87526   0.64180   0.00000  Uiso   1.00
Ti89   Ti    0.33955   0.37526   0.68071   0.00000  Uiso   1.00
Ti90   Ti    0.83955   0.87526   0.68071   0.00000  Uiso   1.00
O91    O     0.15899   0.16693   0.62256   0.00000  Uiso   1.00
O92    O     0.65899   0.66693   0.62256   0.00000  Uiso   1.00
O93    O     0.15899   0.50026   0.62256   0.00000  Uiso   1.00
O94    O     0.65899   1.00026   0.62256   0.00000  Uiso   1.00
O95    O     0.15899   0.83360   0.62256   0.00000  Uiso   1.00
O96    O     0.65899   0.33360   0.62256   0.00000  Uiso   1.00
O97    O     0.32566   1.00026   0.62256   0.00000  Uiso   1.00
O98    O     0.82566   0.50026   0.62256   0.00000  Uiso   1.00
O99    O     0.32566   0.33360   0.62256   0.00000  Uiso   1.00
O100   O     0.82566   0.83360   0.62256   0.00000  Uiso   1.00
O101   O     0.32566   0.66693   0.62256   0.00000  Uiso   1.00
O102   O     0.82566   0.16693   0.62256   0.00000  Uiso   1.00
O103   O     0.49233   0.83360   0.62256   0.00000  Uiso   1.00
O104   O     0.99233   0.33360   0.62256   0.00000  Uiso   1.00
O105   O     0.49233   0.16693   0.62256   0.00000  Uiso   1.00
O106   O     0.99233   0.66693   0.62256   0.00000  Uiso   1.00
O107   O     0.49233   0.50026   0.62256   0.00000  Uiso   1.00
O108   O     0.99233   1.00026   0.62256   0.00000  Uiso   1.00
O109   O     0.10843   1.01526   0.73682   0.00000  Uiso   1.00
O110   O     0.60843   0.51526   0.73682   0.00000  Uiso   1.00
O111   O     0.10843   0.34859   0.73682   0.00000  Uiso   1.00
O112   O     0.60843   0.84859   0.73682   0.00000  Uiso   1.00
O113   O     0.10843   0.68192   0.73682   0.00000  Uiso   1.00
O114   O     0.60843   0.18192   0.73682   0.00000  Uiso   1.00
O115   O     0.27510   0.84859   0.73682   0.00000  Uiso   1.00
O116   O     0.77510   0.34859   0.73682   0.00000  Uiso   1.00
O117   O     0.27510   0.18192   0.73682   0.00000  Uiso   1.00
O118   O     0.77510   0.68192   0.73682   0.00000  Uiso   1.00
O119   O     0.27510   0.51526   0.73682   0.00000  Uiso   1.00
O120   O     0.77510   1.01526   0.73682   0.00000  Uiso   1.00
O121   O     0.44177   0.68192   0.73682   0.00000  Uiso   1.00
O122   O     0.94177   0.18192   0.73682   0.00000  Uiso   1.00
O123   O     0.44177   1.01526   0.73682   0.00000  Uiso   1.00
O124   O     0.94177   0.51526   0.73682   0.00000  Uiso   1.00
O125   O     0.44177   0.34859   0.73682   0.00000  Uiso   1.00
O126   O     0.94177   0.84859   0.73682   0.00000  Uiso   1.00
C127   C     0.11364   0.04069   0.30807   0.00000  Uiso   1.00
C128   C     0.61364   0.54069   0.30807   0.00000  Uiso   1.00
Ti129  Ti    0.05808   0.20736   0.32576   0.00000  Uiso   1.00
Ti130  Ti    0.55808   0.70736   0.32576   0.00000  Uiso   1.00
C131   C     0.05808   0.20736   0.26565   0.00000  Uiso   1.00
C132   C     0.55808   0.70736   0.26565   0.00000  Uiso   1.00
Ti133  Ti    0.11364   0.04069   0.24796   0.00000  Uiso   1.00
Ti134  Ti    0.61364   0.54069   0.24796   0.00000  Uiso   1.00
Ti135  Ti    0.00252   0.04069   0.28686   0.00000  Uiso   1.00
Ti136  Ti    0.50252   0.54069   0.28686   0.00000  Uiso   1.00
C137   C     0.11364   0.37403   0.30807   0.00000  Uiso   1.00
C138   C     0.61364   0.87403   0.30807   0.00000  Uiso   1.00
Ti139  Ti    0.05808   0.54069   0.32576   0.00000  Uiso   1.00
Ti140  Ti    0.55808   0.04069   0.32576   0.00000  Uiso   1.00
C141   C     0.05808   0.54069   0.26565   0.00000  Uiso   1.00
C142   C     0.55808   0.04069   0.26565   0.00000  Uiso   1.00
Ti143  Ti    0.11364   0.37403   0.24796   0.00000  Uiso   1.00
Ti144  Ti    0.61364   0.87403   0.24796   0.00000  Uiso   1.00
Ti145  Ti    0.00252   0.37403   0.28686   0.00000  Uiso   1.00
Ti146  Ti    0.50252   0.87403   0.28686   0.00000  Uiso   1.00
C147   C     0.11364   0.70736   0.30807   0.00000  Uiso   1.00
C148   C     0.61364   0.20736   0.30807   0.00000  Uiso   1.00
Ti149  Ti    0.05808   0.87403   0.32576   0.00000  Uiso   1.00
Ti150  Ti    0.55808   0.37403   0.32576   0.00000  Uiso   1.00
C151   C     0.05808   0.87403   0.26565   0.00000  Uiso   1.00
C152   C     0.55808   0.37403   0.26565   0.00000  Uiso   1.00
Ti153  Ti    0.11364   0.70736   0.24796   0.00000  Uiso   1.00
Ti154  Ti    0.61364   0.20736   0.24796   0.00000  Uiso   1.00
Ti155  Ti    0.00252   0.70736   0.28686   0.00000  Uiso   1.00
Ti156  Ti    0.50252   0.20736   0.28686   0.00000  Uiso   1.00
C157   C     0.28030   0.87403   0.30807   0.00000  Uiso   1.00
C158   C     0.78030   0.37403   0.30807   0.00000  Uiso   1.00
Ti159  Ti    0.22475   0.04069   0.32576   0.00000  Uiso   1.00
Ti160  Ti    0.72475   0.54069   0.32576   0.00000  Uiso   1.00
C161   C     0.22475   0.04069   0.26565   0.00000  Uiso   1.00
C162   C     0.72475   0.54069   0.26565   0.00000  Uiso   1.00
Ti163  Ti    0.28030   0.87403   0.24796   0.00000  Uiso   1.00
Ti164  Ti    0.78030   0.37403   0.24796   0.00000  Uiso   1.00
Ti165  Ti    0.16919   0.87403   0.28686   0.00000  Uiso   1.00
Ti166  Ti    0.66919   0.37403   0.28686   0.00000  Uiso   1.00
C167   C     0.28030   0.20736   0.30807   0.00000  Uiso   1.00
C168   C     0.78030   0.70736   0.30807   0.00000  Uiso   1.00
Ti169  Ti    0.22475   0.37403   0.32576   0.00000  Uiso   1.00
Ti170  Ti    0.72475   0.87403   0.32576   0.00000  Uiso   1.00
C171   C     0.22475   0.37403   0.26565   0.00000  Uiso   1.00
C172   C     0.72475   0.87403   0.26565   0.00000  Uiso   1.00
Ti173  Ti    0.28030   0.20736   0.24796   0.00000  Uiso   1.00
Ti174  Ti    0.78030   0.70736   0.24796   0.00000  Uiso   1.00
Ti175  Ti    0.16919   0.20736   0.28686   0.00000  Uiso   1.00
Ti176  Ti    0.66919   0.70736   0.28686   0.00000  Uiso   1.00
C177   C     0.28030   0.54069   0.30807   0.00000  Uiso   1.00
C178   C     0.78030   0.04069   0.30807   0.00000  Uiso   1.00
Ti179  Ti    0.22475   0.70736   0.32576   0.00000  Uiso   1.00
Ti180  Ti    0.72475   0.20736   0.32576   0.00000  Uiso   1.00
C181   C     0.22475   0.70736   0.26565   0.00000  Uiso   1.00
C182   C     0.72475   0.20736   0.26565   0.00000  Uiso   1.00
Ti183  Ti    0.28030   0.54069   0.24796   0.00000  Uiso   1.00
Ti184  Ti    0.78030   0.04069   0.24796   0.00000  Uiso   1.00
Ti185  Ti    0.16919   0.54069   0.28686   0.00000  Uiso   1.00
Ti186  Ti    0.66919   0.04069   0.28686   0.00000  Uiso   1.00
C187   C     0.44697   0.70736   0.30807   0.00000  Uiso   1.00
C188   C     0.94697   0.20736   0.30807   0.00000  Uiso   1.00
Ti189  Ti    0.39141   0.87403   0.32576   0.00000  Uiso   1.00
Ti190  Ti    0.89141   0.37403   0.32576   0.00000  Uiso   1.00
C191   C     0.39141   0.87403   0.26565   0.00000  Uiso   1.00
C192   C     0.89141   0.37403   0.26565   0.00000  Uiso   1.00
Ti193  Ti    0.44697   0.70736   0.24796   0.00000  Uiso   1.00
Ti194  Ti    0.94697   0.20736   0.24796   0.00000  Uiso   1.00
Ti195  Ti    0.33586   0.70736   0.28686   0.00000  Uiso   1.00
Ti196  Ti    0.83586   0.20736   0.28686   0.00000  Uiso   1.00
C197   C     0.44697   0.04069   0.30807   0.00000  Uiso   1.00
C198   C     0.94697   0.54069   0.30807   0.00000  Uiso   1.00
Ti199  Ti    0.39141   0.20736   0.32576   0.00000  Uiso   1.00
Ti200  Ti    0.89141   0.70736   0.32576   0.00000  Uiso   1.00
C201   C     0.39141   0.20736   0.26565   0.00000  Uiso   1.00
C202   C     0.89141   0.70736   0.26565   0.00000  Uiso   1.00
Ti203  Ti    0.44697   0.04069   0.24796   0.00000  Uiso   1.00
Ti204  Ti    0.94697   0.54069   0.24796   0.00000  Uiso   1.00
Ti205  Ti    0.33586   0.04069   0.28686   0.00000  Uiso   1.00
Ti206  Ti    0.83586   0.54069   0.28686   0.00000  Uiso   1.00
C207   C     0.44697   0.37403   0.30807   0.00000  Uiso   1.00
C208   C     0.94697   0.87403   0.30807   0.00000  Uiso   1.00
Ti209  Ti    0.39141   0.54069   0.32576   0.00000  Uiso   1.00
Ti210  Ti    0.89141   0.04069   0.32576   0.00000  Uiso   1.00
C211   C     0.39141   0.54069   0.26565   0.00000  Uiso   1.00
C212   C     0.89141   0.04069   0.26565   0.00000  Uiso   1.00
Ti213  Ti    0.44697   0.37403   0.24796   0.00000  Uiso   1.00
Ti214  Ti    0.94697   0.87403   0.24796   0.00000  Uiso   1.00
Ti215  Ti    0.33586   0.37403   0.28686   0.00000  Uiso   1.00
Ti216  Ti    0.83586   0.87403   0.28686   0.00000  Uiso   1.00
O217   O     0.15530   0.16570   0.22871   0.00000  Uiso   1.00
O218   O     0.65530   0.66570   0.22871   0.00000  Uiso   1.00
O219   O     0.15530   0.49903   0.22871   0.00000  Uiso   1.00
O220   O     0.65530   0.99903   0.22871   0.00000  Uiso   1.00
O221   O     0.15530   0.83237   0.22871   0.00000  Uiso   1.00
O222   O     0.65530   0.33237   0.22871   0.00000  Uiso   1.00
O223   O     0.32197   0.99903   0.22871   0.00000  Uiso   1.00
O224   O     0.82197   0.49903   0.22871   0.00000  Uiso   1.00
O225   O     0.32197   0.33237   0.22871   0.00000  Uiso   1.00
O226   O     0.82197   0.83237   0.22871   0.00000  Uiso   1.00
O227   O     0.32197   0.66570   0.22871   0.00000  Uiso   1.00
O228   O     0.82197   0.16570   0.22871   0.00000  Uiso   1.00
O229   O     0.48864   0.83237   0.22871   0.00000  Uiso   1.00
O230   O     0.98864   0.33237   0.22871   0.00000  Uiso   1.00
O231   O     0.48864   0.16570   0.22871   0.00000  Uiso   1.00
O232   O     0.98864   0.66570   0.22871   0.00000  Uiso   1.00
O233   O     0.48864   0.49903   0.22871   0.00000  Uiso   1.00
O234   O     0.98864   0.99903   0.22871   0.00000  Uiso   1.00
O235   O     0.10475   1.01402   0.34298   0.00000  Uiso   1.00
O236   O     0.60475   0.51402   0.34298   0.00000  Uiso   1.00
O237   O     0.10475   0.34736   0.34298   0.00000  Uiso   1.00
O238   O     0.60475   0.84736   0.34298   0.00000  Uiso   1.00
O239   O     0.10475   0.68069   0.34298   0.00000  Uiso   1.00
O240   O     0.60475   0.18069   0.34298   0.00000  Uiso   1.00
O241   O     0.27141   0.84736   0.34298   0.00000  Uiso   1.00
O242   O     0.77141   0.34736   0.34298   0.00000  Uiso   1.00
O243   O     0.27141   0.18069   0.34298   0.00000  Uiso   1.00
O244   O     0.77141   0.68069   0.34298   0.00000  Uiso   1.00
O245   O     0.27141   0.51402   0.34298   0.00000  Uiso   1.00
O246   O     0.77141   1.01402   0.34298   0.00000  Uiso   1.00
O247   O     0.43808   0.68069   0.34298   0.00000  Uiso   1.00
O248   O     0.93808   0.18069   0.34298   0.00000  Uiso   1.00
O249   O     0.43808   1.01402   0.34298   0.00000  Uiso   1.00
O250   O     0.93808   0.51402   0.34298   0.00000  Uiso   1.00
O251   O     0.43808   0.34736   0.34298   0.00000  Uiso   1.00
O252   O     0.93808   0.84736   0.34298   0.00000  Uiso   1.00
N253   N     0.75579   0.26394   0.55129   0.00000  Uiso   1.00
C254   C     0.78761   0.12775   0.54660   0.00000  Uiso   1.00
N255   N     0.74458   0.23289   0.51601   0.00000  Uiso   1.00
C256   C     0.78053   0.10833   0.52451   0.00000  Uiso   1.00
C257   C     0.73011   0.32533   0.53257   0.00000  Uiso   1.00
C258   C     0.75090   0.32998   0.57321   0.00000  Uiso   1.00
C259   C     0.72451   0.26028   0.49270   0.00000  Uiso   1.00
C260   C     0.63061   0.27255   0.48862   0.00000  Uiso   1.00
H261   H     0.70101   0.43042   0.53088   0.00000  Uiso   1.00
H262   H     0.81239   0.05733   0.55916   0.00000  Uiso   1.00
H263   H     0.79829   0.01798   0.51426   0.00000  Uiso   1.00
H264   H     0.72321   0.43777   0.57172   0.00000  Uiso   1.00
H265   H     0.71175   0.26287   0.58380   0.00000  Uiso   1.00
H266   H     0.81381   0.33929   0.58008   0.00000  Uiso   1.00
H267   H     0.75595   0.36053   0.48777   0.00000  Uiso   1.00
H268   H     0.75098   0.17059   0.48328   0.00000  Uiso   1.00
H269   H     0.62135   0.28779   0.47096   0.00000  Uiso   1.00
H270   H     0.59850   0.17254   0.49366   0.00000  Uiso   1.00
O271   O     0.60170   0.39426   0.50084   0.00000  Uiso   1.00
H272   H     0.54350   0.41350   0.49756   0.00000  Uiso   1.00
N273   N     0.24272   0.35900   0.43347   0.00000  Uiso   1.00
C274   C     0.26654   0.48740   0.44344   0.00000  Uiso   1.00
N275   N     0.29374   0.30273   0.46548   0.00000  Uiso   1.00
C276   C     0.29843   0.45211   0.46349   0.00000  Uiso   1.00
C277   C     0.25968   0.24896   0.44709   0.00000  Uiso   1.00
C278   C     0.20495   0.34580   0.41156   0.00000  Uiso   1.00
C279   C     0.32078   0.21592   0.48461   0.00000  Uiso   1.00
C280   C     0.24773   0.14128   0.49607   0.00000  Uiso   1.00
H281   H     0.24692   0.13561   0.44417   0.00000  Uiso   1.00
H282   H     0.25908   0.59140   0.43555   0.00000  Uiso   1.00
H283   H     0.32418   0.51975   0.47627   0.00000  Uiso   1.00
H284   H     0.19329   0.23135   0.40816   0.00000  Uiso   1.00
H285   H     0.14585   0.40519   0.41115   0.00000  Uiso   1.00
H286   H     0.24802   0.38939   0.39932   0.00000  Uiso   1.00
H287   H     0.36598   0.13515   0.47890   0.00000  Uiso   1.00
H288   H     0.35266   0.28987   0.49583   0.00000  Uiso   1.00
H289   H     0.27287   0.08385   0.51037   0.00000  Uiso   1.00
H290   H     0.20178   0.22167   0.50174   0.00000  Uiso   1.00
O291   O     0.21158   0.04379   0.48064   0.00000  Uiso   1.00
H292   H     0.16869  -0.01437   0.48757   0.00000  Uiso   1.00
N293   N     0.40156   0.50043   0.54417   0.00000  Uiso   1.00
C294   C     0.44177   0.55573   0.56245   0.00000  Uiso   1.00
N295   N     0.39187   0.33732   0.56989   0.00000  Uiso   1.00
C296   C     0.43564   0.45359   0.57856   0.00000  Uiso   1.00
C297   C     0.37187   0.36848   0.54906   0.00000  Uiso   1.00
C298   C     0.39283   0.57447   0.52293   0.00000  Uiso   1.00
C299   C     0.36986   0.20168   0.58151   0.00000  Uiso   1.00
C300   C     0.27569   0.18446   0.58465   0.00000  Uiso   1.00
H301   H     0.33624   0.29873   0.53833   0.00000  Uiso   1.00
H302   H     0.47105   0.66126   0.56246   0.00000  Uiso   1.00
H303   H     0.45889   0.45357   0.59517   0.00000  Uiso   1.00
H304   H     0.35843   0.50397   0.51173   0.00000  Uiso   1.00
H305   H     0.35832   0.67559   0.52517   0.00000  Uiso   1.00
H306   H     0.45486   0.59678   0.51620   0.00000  Uiso   1.00
H307   H     0.39467   0.11060   0.57203   0.00000  Uiso   1.00
H308   H     0.40173   0.20449   0.59734   0.00000  Uiso   1.00
H309   H     0.26526   0.08435   0.59397   0.00000  Uiso   1.00
H310   H     0.25020   0.27603   0.59405   0.00000  Uiso   1.00
O311   O     0.23940   0.17685   0.56336   0.00000  Uiso   1.00
H312   H     0.18028   0.15513   0.56440   0.00000  Uiso   1.00
C313   C     0.51018  -0.42644   0.56487   0.00000  Uiso   1.00
F314   F     0.54274  -0.53620   0.57681   0.00000  Uiso   1.00
F315   F     0.46764  -0.48123   0.54763   0.00000  Uiso   1.00
F316   F     0.45766  -0.34774   0.57752   0.00000  Uiso   1.00
S317   S     0.59265  -0.31317   0.55520   0.00000  Uiso   1.00
O318   O     0.64981  -0.39873   0.54144   0.00000  Uiso   1.00
O319   O     0.63899  -0.25347   0.57397   0.00000  Uiso   1.00
N320   N     0.55136  -0.17414   0.54010   0.00000  Uiso   1.00
S321   S     0.52409  -0.01496   0.55260   0.00000  Uiso   1.00
O322   O     0.49866  -0.04436   0.57534   0.00000  Uiso   1.00
O323   O     0.45397   0.05192   0.54070   0.00000  Uiso   1.00
C324   C     0.61135   0.10526   0.55251   0.00000  Uiso   1.00
F325   F     0.67575   0.04382   0.56346   0.00000  Uiso   1.00
F326   F     0.63469   0.13233   0.53163   0.00000  Uiso   1.00
F327   F     0.58977   0.23099   0.56240   0.00000  Uiso   1.00
C328   C     0.44849  -0.30245   0.45311   0.00000  Uiso   1.00
F329   F     0.44612  -0.37230   0.47256   0.00000  Uiso   1.00
F330   F     0.51607  -0.21451   0.45248   0.00000  Uiso   1.00
F331   F     0.45348  -0.40057   0.43671   0.00000  Uiso   1.00
S332   S     0.35581  -0.19701   0.44991   0.00000  Uiso   1.00
O333   O     0.35034  -0.09028   0.46774   0.00000  Uiso   1.00
O334   O     0.28220  -0.29274   0.45060   0.00000  Uiso   1.00
N335   N     0.35882  -0.10866   0.42526   0.00000  Uiso   1.00
S336   S     0.31825  -0.18928   0.40236   0.00000  Uiso   1.00
O337   O     0.32646  -0.34769   0.40428   0.00000  Uiso   1.00
O338   O     0.36416  -0.13899   0.38291   0.00000  Uiso   1.00
C339   C     0.21052  -0.14255   0.39977   0.00000  Uiso   1.00
F340   F     0.16834  -0.18887   0.41763   0.00000  Uiso   1.00
F341   F     0.20297   0.00292   0.39800   0.00000  Uiso   1.00
F342   F     0.17849  -0.20633   0.38167   0.00000  Uiso   1.00
C343   C     0.39602   0.57248   0.39097   0.00000  Uiso   1.00
F344   F     0.35143   0.55790   0.37228   0.00000  Uiso   1.00
F345   F     0.42670   0.70870   0.39227   0.00000  Uiso   1.00
F346   F     0.34589   0.54648   0.40837   0.00000  Uiso   1.00
S347   S     0.48046   0.44622   0.39094   0.00000  Uiso   1.00
O348   O     0.53501   0.47445   0.37201   0.00000  Uiso   1.00
O349   O     0.44708   0.29786   0.38952   0.00000  Uiso   1.00
N350   N     0.53688   0.46468   0.41461   0.00000  Uiso   1.00
S351   S     0.51091   0.36493   0.43725   0.00000  Uiso   1.00
O352   O     0.42035   0.33573   0.43713   0.00000  Uiso   1.00
O353   O     0.53294   0.44644   0.45713   0.00000  Uiso   1.00
C354   C     0.56670   0.19774   0.43686   0.00000  Uiso   1.00
F355   F     0.54639   0.12282   0.41860   0.00000  Uiso   1.00
F356   F     0.64987   0.22452   0.43698   0.00000  Uiso   1.00
F357   F     0.54613   0.11896   0.45475   0.00000  Uiso   1.00
loop_
_geom_bond_atom_site_label_1
_geom_bond_atom_site_label_2
_geom_bond_distance
_geom_bond_site_symmetry_2
_ccdc_geom_bond_type
C1     Ti3     2.076   .     S
C1     Ti23    2.076   1_545 S
C1     Ti33    2.076   .     S
C1     Ti9     2.195   .     S
C1     Ti49    2.195   .     S
C1     Ti39    2.195   1_545 S
C2     Ti4     2.076   .     S
C2     Ti24    2.076   .     S
C2     Ti34    2.076   .     S
C2     Ti10    2.195   .     S
C2     Ti50    2.195   .     S
C2     Ti40    2.195   .     S
Ti3    C11     2.076   .     S
Ti3    C62     2.076   1_455 S
Ti3    O109    2.198   1_545 S
Ti3    O111    1.822   .     S
Ti3    O122    2.198   1_455 S
Ti4    C12     2.076   .     S
Ti4    C61     2.076   .     S
Ti4    O110    2.198   .     S
Ti4    O112    1.822   .     S
Ti4    O121    2.198   .     S
C5     Ti7     2.076   .     S
C5     Ti17    2.076   .     S
C5     Ti68    2.076   1_455 S
C5     Ti9     2.195   .     S
C5     Ti19    2.195   .     S
C5     Ti49    2.195   .     S
C6     Ti8     2.076   .     S
C6     Ti18    2.076   .     S
C6     Ti67    2.076   .     S
C6     Ti10    2.195   .     S
C6     Ti20    2.195   .     S
C6     Ti50    2.195   .     S
Ti7    C25     2.076   1_545 S
Ti7    C35     2.076   .     S
Ti7    O91     1.774   .     S
Ti8    C26     2.076   .     S
Ti8    C36     2.076   .     S
Ti8    O92     1.774   .     S
Ti9    C82     2.195   1_445 S
Ti9    C62     2.195   1_455 S
Ti9    C25     2.195   1_545 S
Ti9    C86     2.195   1_455 S
Ti10   C81     2.195   .     S
Ti10   C61     2.195   .     S
Ti10   C26     2.195   .     S
Ti10   C85     2.195   .     S
C11    Ti13    2.076   .     S
C11    Ti43    2.076   .     S
C11    Ti19    2.195   .     S
C11    Ti59    2.195   .     S
C11    Ti49    2.195   .     S
C12    Ti14    2.076   1_565 S
C12    Ti44    2.076   .     S
C12    Ti20    2.195   .     S
C12    Ti60    2.195   1_565 S
C12    Ti50    2.195   .     S
Ti13   C21     2.076   .     S
Ti13   C72     2.076   1_455 S
Ti13   O111    2.198   .     S
Ti13   O113    1.822   .     S
Ti13   O124    2.198   1_455 S
Ti14   C12     2.076   1_545 S
Ti14   C22     2.076   .     S
Ti14   C71     2.076   .     S
Ti14   O112    2.198   1_545 S
Ti14   O114    1.822   .     S
Ti14   O123    2.198   1_545 S
C15    Ti17    2.076   .     S
C15    Ti27    2.076   .     S
C15    Ti78    2.076   1_455 S
C15    Ti19    2.195   .     S
C15    Ti29    2.195   .     S
C15    Ti59    2.195   .     S
C16    Ti18    2.076   1_545 S
C16    Ti28    2.076   .     S
C16    Ti77    2.076   .     S
C16    Ti20    2.195   1_545 S
C16    Ti30    2.195   .     S
C16    Ti60    2.195   .     S
Ti17   C45     2.076   .     S
Ti17   O93     1.774   .     S
Ti18   C16     2.076   1_565 S
Ti18   C46     2.076   .     S
Ti18   O94     1.774   .     S
Ti19   C62     2.195   1_455 S
Ti19   C72     2.195   1_455 S
Ti19   C66     2.195   1_455 S
Ti20   C61     2.195   .     S
Ti20   C71     2.195   1_565 S
Ti20   C16     2.195   1_565 S
Ti20   C65     2.195   .     S
C21    Ti23    2.076   .     S
C21    Ti53    2.076   .     S
C21    Ti29    2.195   .     S
C21    Ti39    2.195   .     S
C21    Ti59    2.195   .     S
C22    Ti24    2.076   .     S
C22    Ti54    2.076   .     S
C22    Ti30    2.195   .     S
C22    Ti40    2.195   .     S
C22    Ti60    2.195   .     S
Ti23   C1      2.076   1_565 S
Ti23   C82     2.076   1_455 S
Ti23   O109    1.822   .     S
Ti23   O113    2.198   .     S
Ti23   O126    2.198   1_455 S
Ti24   C81     2.076   .     S
Ti24   O110    1.822   .     S
Ti24   O114    2.198   .     S
Ti24   O125    2.198   .     S
C25    Ti27    2.076   .     S
C25    Ti7     2.076   1_565 S
C25    Ti88    2.076   1_455 S
C25    Ti29    2.195   .     S
C25    Ti9     2.195   1_565 S
C25    Ti39    2.195   .     S
C26    Ti28    2.076   .     S
C26    Ti87    2.076   .     S
C26    Ti30    2.195   .     S
C26    Ti40    2.195   .     S
Ti27   C55     2.076   .     S
Ti27   O95     1.774   .     S
Ti28   C56     2.076   .     S
Ti28   O96     1.774   .     S
Ti29   C72     2.195   1_455 S
Ti29   C82     2.195   1_455 S
Ti29   C76     2.195   1_455 S
Ti30   C71     2.195   .     S
Ti30   C81     2.195   .     S
Ti30   C75     2.195   .     S
C31    Ti33    2.076   1_565 S
C31    Ti53    2.076   .     S
C31    Ti63    2.076   .     S
C31    Ti39    2.195   .     S
C31    Ti79    2.195   1_565 S
C31    Ti69    2.195   .     S
C32    Ti34    2.076   .     S
C32    Ti54    2.076   .     S
C32    Ti64    2.076   .     S
C32    Ti40    2.195   .     S
C32    Ti80    2.195   .     S
C32    Ti70    2.195   .     S
Ti33   C31     2.076   1_545 S
Ti33   C41     2.076   .     S
Ti33   O109    2.198   1_545 S
Ti33   O115    2.198   1_545 S
Ti33   O117    1.822   .     S
Ti34   C42     2.076   .     S
Ti34   O110    2.198   .     S
Ti34   O116    2.198   .     S
Ti34   O118    1.822   .     S
C35    Ti37    2.076   1_545 S
C35    Ti47    2.076   .     S
C35    Ti39    2.195   1_545 S
C35    Ti49    2.195   .     S
C35    Ti79    2.195   .     S
C36    Ti38    2.076   .     S
C36    Ti48    2.076   .     S
C36    Ti40    2.195   .     S
C36    Ti50    2.195   .     S
C36    Ti80    2.195   .     S
Ti37   C35     2.076   1_565 S
Ti37   C55     2.076   .     S
Ti37   C65     2.076   .     S
Ti37   O97     1.774   .     S
Ti38   C56     2.076   .     S
Ti38   C66     2.076   .     S
Ti38   O98     1.774   .     S
Ti39   C1      2.195   1_565 S
Ti39   C35     2.195   1_565 S
Ti39   C55     2.195   .     S
Ti40   C56     2.195   .     S
C41    Ti43    2.076   .     S
C41    Ti73    2.076   .     S
C41    Ti49    2.195   .     S
C41    Ti89    2.195   .     S
C41    Ti79    2.195   .     S
C42    Ti44    2.076   .     S
C42    Ti74    2.076   .     S
C42    Ti50    2.195   .     S
C42    Ti90    2.195   .     S
C42    Ti80    2.195   .     S
Ti43   C51     2.076   .     S
Ti43   O111    2.198   .     S
Ti43   O117    2.198   .     S
Ti43   O119    1.822   .     S
Ti44   C52     2.076   1_565 S
Ti44   O112    2.198   .     S
Ti44   O118    2.198   .     S
Ti44   O120    1.822   .     S
C45    Ti47    2.076   .     S
C45    Ti57    2.076   .     S
C45    Ti49    2.195   .     S
C45    Ti59    2.195   .     S
C45    Ti89    2.195   .     S
C46    Ti48    2.076   .     S
C46    Ti58    2.076   1_565 S
C46    Ti50    2.195   .     S
C46    Ti60    2.195   1_565 S
C46    Ti90    2.195   .     S
Ti47   C75     2.076   .     S
Ti47   O99     1.774   .     S
Ti48   C76     2.076   .     S
Ti48   O100    1.774   .     S
C51    Ti53    2.076   .     S
C51    Ti83    2.076   .     S
C51    Ti59    2.195   .     S
C51    Ti69    2.195   .     S
C51    Ti89    2.195   .     S
C52    Ti54    2.076   .     S
C52    Ti44    2.076   1_545 S
C52    Ti84    2.076   .     S
C52    Ti60    2.195   .     S
C52    Ti70    2.195   .     S
C52    Ti90    2.195   1_545 S
Ti53   O113    2.198   .     S
Ti53   O115    1.822   .     S
Ti53   O119    2.198   .     S
Ti54   O114    2.198   .     S
Ti54   O116    1.822   .     S
Ti54   O120    2.198   1_545 S
C55    Ti57    2.076   .     S
C55    Ti59    2.195   .     S
C55    Ti69    2.195   .     S
C56    Ti58    2.076   .     S
C56    Ti60    2.195   .     S
C56    Ti70    2.195   .     S
Ti57   C85     2.076   .     S
Ti57   O101    1.774   .     S
Ti58   C46     2.076   1_545 S
Ti58   C86     2.076   .     S
Ti58   O102    1.774   .     S
Ti60   C12     2.195   1_545 S
Ti60   C46     2.195   1_545 S
C61    Ti63    2.076   .     S
C61    Ti83    2.076   .     S
C61    Ti69    2.195   .     S
C62    Ti64    2.076   .     S
C62    Ti84    2.076   .     S
C62    Ti3     2.076   1_655 S
C62    Ti70    2.195   .     S
C62    Ti19    2.195   1_655 S
C62    Ti9     2.195   1_655 S
Ti63   C71     2.076   1_565 S
Ti63   O115    2.198   .     S
Ti63   O121    2.198   .     S
Ti63   O123    1.822   .     S
Ti64   C72     2.076   .     S
Ti64   O116    2.198   .     S
Ti64   O122    2.198   .     S
Ti64   O124    1.822   .     S
C65    Ti67    2.076   .     S
C65    Ti77    2.076   1_565 S
C65    Ti69    2.195   .     S
C65    Ti79    2.195   1_565 S
C66    Ti68    2.076   .     S
C66    Ti78    2.076   .     S
C66    Ti70    2.195   .     S
C66    Ti80    2.195   .     S
C66    Ti19    2.195   1_655 S
Ti67   C85     2.076   .     S
Ti67   O103    1.774   .     S
Ti68   C86     2.076   .     S
Ti68   C5      2.076   1_655 S
Ti68   O104    1.774   .     S
Ti69   C85     2.195   .     S
Ti70   C86     2.195   .     S
C71    Ti73    2.076   .     S
C71    Ti63    2.076   1_545 S
C71    Ti79    2.195   .     S
C71    Ti20    2.195   1_545 S
C72    Ti74    2.076   .     S
C72    Ti13    2.076   1_655 S
C72    Ti80    2.195   .     S
C72    Ti29    2.195   1_655 S
C72    Ti19    2.195   1_655 S
Ti73   C81     2.076   .     S
Ti73   O117    2.198   .     S
Ti73   O123    2.198   1_545 S
Ti73   O125    1.822   .     S
Ti74   C82     2.076   .     S
Ti74   O118    2.198   .     S
Ti74   O124    2.198   .     S
Ti74   O126    1.822   .     S
C75    Ti77    2.076   .     S
C75    Ti87    2.076   .     S
C75    Ti79    2.195   .     S
C75    Ti89    2.195   .     S
C76    Ti78    2.076   .     S
C76    Ti88    2.076   .     S
C76    Ti80    2.195   .     S
C76    Ti90    2.195   .     S
C76    Ti29    2.195   1_655 S
Ti77   C65     2.076   1_545 S
Ti77   O105    1.774   .     S
Ti78   C15     2.076   1_655 S
Ti78   O106    1.774   .     S
Ti79   C31     2.195   1_545 S
Ti79   C65     2.195   1_545 S
C81    Ti83    2.076   .     S
C81    Ti89    2.195   .     S
C82    Ti84    2.076   1_565 S
C82    Ti23    2.076   1_655 S
C82    Ti90    2.195   .     S
C82    Ti9     2.195   1_665 S
C82    Ti29    2.195   1_655 S
Ti83   O119    2.198   .     S
Ti83   O121    1.822   .     S
Ti83   O125    2.198   .     S
Ti84   C82     2.076   1_545 S
Ti84   O120    2.198   1_545 S
Ti84   O122    1.822   .     S
Ti84   O126    2.198   1_545 S
C85    Ti87    2.076   .     S
C85    Ti89    2.195   .     S
C86    Ti88    2.076   1_545 S
C86    Ti90    2.195   1_545 S
C86    Ti9     2.195   1_655 S
Ti87   O107    1.774   .     S
Ti88   C86     2.076   1_565 S
Ti88   C25     2.076   1_655 S
Ti88   O108    1.774   .     S
Ti90   C52     2.195   1_565 S
Ti90   C86     2.195   1_565 S
O109   Ti3     2.198   1_565 S
O109   Ti33    2.198   1_565 S
O112   Ti14    2.198   1_565 S
O115   Ti33    2.198   1_565 S
O120   Ti54    2.198   1_565 S
O120   Ti84    2.198   1_565 S
O122   Ti3     2.198   1_655 S
O123   Ti14    2.198   1_565 S
O123   Ti73    2.198   1_565 S
O124   Ti13    2.198   1_655 S
O126   Ti84    2.198   1_565 S
O126   Ti23    2.198   1_655 S
C127   Ti129   2.076   .     S
C127   Ti159   2.076   .     S
C127   Ti135   2.195   .     S
C127   Ti175   2.195   .     S
C127   Ti165   2.195   1_545 S
C128   Ti130   2.076   .     S
C128   Ti160   2.076   .     S
C128   Ti136   2.195   .     S
C128   Ti176   2.195   .     S
C128   Ti166   2.195   .     S
Ti129  C137    2.076   .     S
Ti129  O235    2.198   1_545 S
Ti129  O237    1.822   .     S
Ti130  C138    2.076   .     S
Ti130  O236    2.198   .     S
Ti130  O238    1.822   .     S
C131   Ti133   2.076   .     S
C131   Ti143   2.076   .     S
C131   Ti135   2.195   .     S
C131   Ti145   2.195   .     S
C131   Ti175   2.195   .     S
C132   Ti134   2.076   .     S
C132   Ti144   2.076   .     S
C132   Ti136   2.195   .     S
C132   Ti146   2.195   .     S
C132   Ti176   2.195   .     S
Ti133  C161    2.076   .     S
Ti133  O217    1.774   .     S
Ti134  C162    2.076   .     S
Ti134  O218    1.774   .     S
Ti135  C151    2.195   1_545 S
Ti135  C188    2.195   1_455 S
Ti135  C208    2.195   1_445 S
Ti135  C212    2.195   1_455 S
Ti136  C152    2.195   .     S
Ti136  C187    2.195   .     S
Ti136  C207    2.195   .     S
Ti136  C211    2.195   .     S
C137   Ti139   2.076   .     S
C137   Ti169   2.076   .     S
C137   Ti145   2.195   .     S
C137   Ti185   2.195   .     S
C137   Ti175   2.195   .     S
C138   Ti140   2.076   1_565 S
C138   Ti170   2.076   .     S
C138   Ti146   2.195   .     S
C138   Ti186   2.195   1_565 S
C138   Ti176   2.195   .     S
Ti139  C147    2.076   .     S
Ti139  O237    2.198   .     S
Ti139  O239    1.822   .     S
Ti140  C138    2.076   1_545 S
Ti140  C148    2.076   .     S
Ti140  O238    2.198   1_545 S
Ti140  O240    1.822   .     S
C141   Ti143   2.076   .     S
C141   Ti153   2.076   .     S
C141   Ti145   2.195   .     S
C141   Ti155   2.195   .     S
C141   Ti185   2.195   .     S
C142   Ti144   2.076   1_545 S
C142   Ti154   2.076   .     S
C142   Ti146   2.195   1_545 S
C142   Ti156   2.195   .     S
C142   Ti186   2.195   .     S
Ti143  C171    2.076   .     S
Ti143  O219    1.774   .     S
Ti144  C142    2.076   1_565 S
Ti144  C172    2.076   .     S
Ti144  O220    1.774   .     S
Ti145  C188    2.195   1_455 S
Ti145  C198    2.195   1_455 S
Ti145  C192    2.195   1_455 S
Ti146  C142    2.195   1_565 S
Ti146  C187    2.195   .     S
Ti146  C197    2.195   1_565 S
Ti146  C191    2.195   .     S
C147   Ti149   2.076   .     S
C147   Ti179   2.076   .     S
C147   Ti155   2.195   .     S
C147   Ti165   2.195   .     S
C147   Ti185   2.195   .     S
C148   Ti150   2.076   .     S
C148   Ti180   2.076   .     S
C148   Ti156   2.195   .     S
C148   Ti166   2.195   .     S
C148   Ti186   2.195   .     S
Ti149  O239    2.198   .     S
Ti150  O240    2.198   .     S
C151   Ti153   2.076   .     S
C151   Ti155   2.195   .     S
C151   Ti135   2.195   1_565 S
C151   Ti165   2.195   .     S
C152   Ti154   2.076   .     S
C152   Ti156   2.195   .     S
C152   Ti166   2.195   .     S
Ti153  C181    2.076   .     S
Ti153  O221    1.774   .     S
Ti154  C182    2.076   .     S
Ti154  O222    1.774   .     S
Ti155  C198    2.195   1_455 S
Ti155  C208    2.195   1_455 S
Ti155  C202    2.195   1_455 S
Ti156  C197    2.195   .     S
Ti156  C207    2.195   .     S
Ti156  C201    2.195   .     S
C157   Ti159   2.076   1_565 S
C157   Ti189   2.076   .     S
C157   Ti165   2.195   .     S
C157   Ti205   2.195   1_565 S
C157   Ti195   2.195   .     S
C158   Ti160   2.076   .     S
C158   Ti190   2.076   .     S
C158   Ti166   2.195   .     S
C158   Ti206   2.195   .     S
C158   Ti196   2.195   .     S
Ti159  C157    2.076   1_545 S
Ti159  C167    2.076   .     S
Ti159  O235    2.198   1_545 S
Ti159  O241    2.198   1_545 S
Ti159  O243    1.822   .     S
Ti160  C168    2.076   .     S
Ti160  O236    2.198   .     S
Ti160  O242    2.198   .     S
Ti160  O244    1.822   .     S
C161   Ti163   2.076   1_545 S
C161   Ti173   2.076   .     S
C161   Ti165   2.195   1_545 S
C161   Ti175   2.195   .     S
C161   Ti205   2.195   .     S
C162   Ti164   2.076   .     S
C162   Ti174   2.076   .     S
C162   Ti166   2.195   .     S
C162   Ti176   2.195   .     S
C162   Ti206   2.195   .     S
Ti163  C161    2.076   1_565 S
Ti163  C191    2.076   .     S
Ti163  O223    1.774   .     S
Ti164  C192    2.076   .     S
Ti164  O224    1.774   .     S
Ti165  C127    2.195   1_565 S
Ti165  C161    2.195   1_565 S
Ti165  C181    2.195   .     S
Ti166  C182    2.195   .     S
C167   Ti169   2.076   .     S
C167   Ti199   2.076   .     S
C167   Ti175   2.195   .     S
C167   Ti215   2.195   .     S
C167   Ti205   2.195   .     S
C168   Ti170   2.076   .     S
C168   Ti200   2.076   .     S
C168   Ti176   2.195   .     S
C168   Ti216   2.195   .     S
C168   Ti206   2.195   .     S
Ti169  C177    2.076   .     S
Ti169  O237    2.198   .     S
Ti169  O243    2.198   .     S
Ti169  O245    1.822   .     S
Ti170  C178    2.076   1_565 S
Ti170  O238    2.198   .     S
Ti170  O244    2.198   .     S
Ti170  O246    1.822   .     S
C171   Ti173   2.076   .     S
C171   Ti183   2.076   .     S
C171   Ti175   2.195   .     S
C171   Ti185   2.195   .     S
C171   Ti215   2.195   .     S
C172   Ti174   2.076   .     S
C172   Ti184   2.076   1_565 S
C172   Ti176   2.195   .     S
C172   Ti186   2.195   1_565 S
C172   Ti216   2.195   .     S
Ti173  C201    2.076   .     S
Ti173  O225    1.774   .     S
Ti174  C202    2.076   .     S
Ti174  O226    1.774   .     S
C177   Ti179   2.076   .     S
C177   Ti209   2.076   .     S
C177   Ti185   2.195   .     S
C177   Ti195   2.195   .     S
C177   Ti215   2.195   .     S
C178   Ti180   2.076   .     S
C178   Ti170   2.076   1_545 S
C178   Ti210   2.076   .     S
C178   Ti186   2.195   .     S
C178   Ti196   2.195   .     S
C178   Ti216   2.195   1_545 S
Ti179  O239    2.198   .     S
Ti179  O245    2.198   .     S
Ti180  O240    2.198   .     S
Ti180  O246    2.198   1_545 S
C181   Ti183   2.076   .     S
C181   Ti185   2.195   .     S
C181   Ti195   2.195   .     S
C182   Ti184   2.076   .     S
C182   Ti186   2.195   .     S
C182   Ti196   2.195   .     S
Ti183  C211    2.076   .     S
Ti183  O227    1.774   .     S
Ti184  C172    2.076   1_545 S
Ti184  C212    2.076   .     S
Ti184  O228    1.774   .     S
Ti186  C138    2.195   1_545 S
Ti186  C172    2.195   1_545 S
C187   Ti189   2.076   .     S
C187   Ti195   2.195   .     S
C188   Ti190   2.076   .     S
C188   Ti196   2.195   .     S
C188   Ti145   2.195   1_655 S
C188   Ti135   2.195   1_655 S
Ti189  C197    2.076   1_565 S
Ti189  O241    2.198   .     S
Ti189  O247    2.198   .     S
Ti189  O249    1.822   .     S
Ti190  C198    2.076   .     S
Ti190  O242    2.198   .     S
Ti190  O248    2.198   .     S
Ti190  O250    1.822   .     S
C191   Ti193   2.076   .     S
C191   Ti203   2.076   1_565 S
C191   Ti195   2.195   .     S
C191   Ti205   2.195   1_565 S
C192   Ti194   2.076   .     S
C192   Ti204   2.076   .     S
C192   Ti196   2.195   .     S
C192   Ti206   2.195   .     S
C192   Ti145   2.195   1_655 S
Ti193  O229    1.774   .     S
Ti194  O230    1.774   .     S
Ti195  C211    2.195   .     S
Ti196  C212    2.195   .     S
C197   Ti199   2.076   .     S
C197   Ti189   2.076   1_545 S
C197   Ti205   2.195   .     S
C197   Ti146   2.195   1_545 S
C198   Ti200   2.076   .     S
C198   Ti206   2.195   .     S
C198   Ti155   2.195   1_655 S
C198   Ti145   2.195   1_655 S
Ti199  C207    2.076   .     S
Ti199  O243    2.198   .     S
Ti199  O249    2.198   1_545 S
Ti199  O251    1.822   .     S
Ti200  C208    2.076   .     S
Ti200  O244    2.198   .     S
Ti200  O250    2.198   .     S
Ti200  O252    1.822   .     S
C201   Ti203   2.076   .     S
C201   Ti213   2.076   .     S
C201   Ti205   2.195   .     S
C201   Ti215   2.195   .     S
C202   Ti204   2.076   .     S
C202   Ti214   2.076   .     S
C202   Ti206   2.195   .     S
C202   Ti216   2.195   .     S
C202   Ti155   2.195   1_655 S
Ti203  C191    2.076   1_545 S
Ti203  O231    1.774   .     S
Ti204  O232    1.774   .     S
Ti205  C157    2.195   1_545 S
Ti205  C191    2.195   1_545 S
C207   Ti209   2.076   .     S
C207   Ti215   2.195   .     S
C208   Ti210   2.076   1_565 S
C208   Ti216   2.195   .     S
C208   Ti135   2.195   1_665 S
C208   Ti155   2.195   1_655 S
Ti209  O245    2.198   .     S
Ti209  O251    2.198   .     S
Ti210  C208    2.076   1_545 S
Ti210  O246    2.198   1_545 S
Ti210  O252    2.198   1_545 S
C211   Ti213   2.076   .     S
C211   Ti215   2.195   .     S
C212   Ti214   2.076   1_545 S
C212   Ti216   2.195   1_545 S
C212   Ti135   2.195   1_655 S
Ti213  O233    1.774   .     S
Ti214  C212    2.076   1_565 S
Ti214  O234    1.774   .     S
Ti216  C178    2.195   1_565 S
Ti216  C212    2.195   1_565 S
O235   Ti129   2.198   1_565 S
O235   Ti159   2.198   1_565 S
O238   Ti140   2.198   1_565 S
O241   Ti159   2.198   1_565 S
O246   Ti180   2.198   1_565 S
O246   Ti210   2.198   1_565 S
O249   Ti199   2.198   1_565 S
O252   Ti210   2.198   1_565 S
N253   C254    1.384   .     S
N253   C257    1.339   .     S
N253   C258    1.471   .     S
C254   C256    1.364   .     D
C254   H262    1.079   .     S
N255   C256    1.384   .     S
N255   C257    1.341   .     D
N255   C259    1.479   .     S
C256   H263    1.079   .     S
C257   H261    1.079   .     S
C258   H264    1.091   .     S
C258   H265    1.091   .     S
C258   H266    1.091   .     S
C259   C260    1.523   .     S
C259   H267    1.093   .     S
C259   H268    1.092   .     S
C260   H269    1.096   .     S
C260   H270    1.098   .     S
C260   O271    1.423   .     S
O271   H272    0.967   .     S
N273   C274    1.384   .     S
N273   C277    1.339   .     D
N273   C278    1.471   .     S
C274   C276    1.364   .     D
C274   H282    1.079   .     S
N275   C276    1.384   .     S
N275   C277    1.341   .     S
N275   C279    1.479   .     S
C276   H283    1.079   .     S
C277   H281    1.079   .     S
C278   H285    1.091   .     S
C278   H284    1.091   .     S
C278   H286    1.091   .     S
C279   C280    1.523   .     S
C279   H287    1.093   .     S
C279   H288    1.092   .     S
C280   H289    1.096   .     S
C280   H290    1.098   .     S
C280   O291    1.423   .     S
O291   H292    0.967   .     S
N293   C294    1.384   .     S
N293   C297    1.339   .     D
N293   C298    1.471   .     S
C294   C296    1.364   .     D
C294   H302    1.079   .     S
N295   C296    1.384   .     S
N295   C297    1.341   .     S
N295   C299    1.479   .     S
C296   H303    1.079   .     S
C297   H301    1.079   .     S
C298   H304    1.091   .     S
C298   H305    1.091   .     S
C298   H306    1.091   .     S
C299   C300    1.523   .     S
C299   H307    1.093   .     S
C299   H308    1.092   .     S
C300   H309    1.096   .     S
C300   H310    1.098   .     S
C300   O311    1.423   .     S
O311   H312    0.967   .     S
C313   F314    1.350   .     S
C313   F315    1.350   .     S
C313   F316    1.350   .     S
C313   S317    1.780   .     S
S317   O318    1.469   .     D
S317   O319    1.470   .     D
S317   N320    1.710   .     S
N320   S321    1.709   .     S
S321   O322    1.470   .     D
S321   O323    1.469   .     D
S321   C324    1.780   .     S
C324   F325    1.350   .     S
C324   F326    1.350   .     S
C324   F327    1.351   .     S
C328   F329    1.350   .     S
C328   F330    1.350   .     S
C328   F331    1.350   .     S
C328   S332    1.780   .     S
S332   O333    1.469   .     D
S332   O334    1.470   .     D
S332   N335    1.710   .     S
N335   S336    1.709   .     S
S336   O337    1.470   .     D
S336   O338    1.469   .     D
S336   C339    1.780   .     S
C339   F340    1.350   .     S
C339   F341    1.350   .     S
C339   F342    1.351   .     S
C343   F344    1.350   .     S
C343   F345    1.350   .     S
C343   F346    1.350   .     S
C343   S347    1.780   .     S
S347   O348    1.469   .     D
S347   O349    1.470   .     D
S347   N350    1.710   .     S
N350   S351    1.709   .     S
S351   O352    1.470   .     D
S351   O353    1.469   .     D
S351   C354    1.780   .     S
C354   F355    1.350   .     S
C354   F356    1.350   .     S
C354   F357    1.351   .     S
